Program Version,EnergyPlus, Version 24.1.0-9d7789a3ac, YMD=2025.08.12 16:05,
Var Type (reported time step),Var Report Type,Variable Name [Units]
Zone,Meter,Electricity:Facility [J]
Zone,Meter,Electricity:Building [J]
Zone,Meter,Electricity:Zone:CORE_BOTTOM [J]
Zone,Meter,Electricity:SpaceType:GENERAL [J]
Zone,Meter,InteriorLights:Electricity [J]
Zone,Meter,InteriorLights:Electricity:Zone:CORE_BOTTOM [J]
Zone,Meter,InteriorLights:Electricity:SpaceType:GENERAL [J]
Zone,Meter,LightsWired:InteriorLights:Electricity [J]
Zone,Meter,LightsWired:InteriorLights:Electricity:Zone:CORE_BOTTOM [J]
Zone,Meter,LightsWired:InteriorLights:Electricity:SpaceType:GENERAL [J]
Zone,Meter,Electricity:Zone:CORE_MID [J]
Zone,Meter,InteriorLights:Electricity:Zone:CORE_MID [J]
Zone,Meter,LightsWired:InteriorLights:Electricity:Zone:CORE_MID [J]
Zone,Meter,Electricity:Zone:CORE_TOP [J]
Zone,Meter,InteriorLights:Electricity:Zone:CORE_TOP [J]
Zone,Meter,LightsWired:InteriorLights:Electricity:Zone:CORE_TOP [J]
Zone,Meter,Electricity:Zone:PERIMETER_BOT_ZN_1 [J]
Zone,Meter,InteriorLights:Electricity:Zone:PERIMETER_BOT_ZN_1 [J]
Zone,Meter,LightsWired:InteriorLights:Electricity:Zone:PERIMETER_BOT_ZN_1 [J]
Zone,Meter,Electricity:Zone:PERIMETER_BOT_ZN_2 [J]
Zone,Meter,InteriorLights:Electricity:Zone:PERIMETER_BOT_ZN_2 [J]
Zone,Meter,LightsWired:InteriorLights:Electricity:Zone:PERIMETER_BOT_ZN_2 [J]
Zone,Meter,Electricity:Zone:PERIMETER_BOT_ZN_3 [J]
Zone,Meter,InteriorLights:Electricity:Zone:PERIMETER_BOT_ZN_3 [J]
Zone,Meter,LightsWired:InteriorLights:Electricity:Zone:PERIMETER_BOT_ZN_3 [J]
Zone,Meter,Electricity:Zone:PERIMETER_BOT_ZN_4 [J]
Zone,Meter,InteriorLights:Electricity:Zone:PERIMETER_BOT_ZN_4 [J]
Zone,Meter,LightsWired:InteriorLights:Electricity:Zone:PERIMETER_BOT_ZN_4 [J]
Zone,Meter,Electricity:Zone:PERIMETER_MID_ZN_1 [J]
Zone,Meter,InteriorLights:Electricity:Zone:PERIMETER_MID_ZN_1 [J]
Zone,Meter,LightsWired:InteriorLights:Electricity:Zone:PERIMETER_MID_ZN_1 [J]
Zone,Meter,Electricity:Zone:PERIMETER_MID_ZN_2 [J]
Zone,Meter,InteriorLights:Electricity:Zone:PERIMETER_MID_ZN_2 [J]
Zone,Meter,LightsWired:InteriorLights:Electricity:Zone:PERIMETER_MID_ZN_2 [J]
Zone,Meter,Electricity:Zone:PERIMETER_MID_ZN_3 [J]
Zone,Meter,InteriorLights:Electricity:Zone:PERIMETER_MID_ZN_3 [J]
Zone,Meter,LightsWired:InteriorLights:Electricity:Zone:PERIMETER_MID_ZN_3 [J]
Zone,Meter,Electricity:Zone:PERIMETER_MID_ZN_4 [J]
Zone,Meter,InteriorLights:Electricity:Zone:PERIMETER_MID_ZN_4 [J]
Zone,Meter,LightsWired:InteriorLights:Electricity:Zone:PERIMETER_MID_ZN_4 [J]
Zone,Meter,Electricity:Zone:PERIMETER_TOP_ZN_1 [J]
Zone,Meter,InteriorLights:Electricity:Zone:PERIMETER_TOP_ZN_1 [J]
Zone,Meter,LightsWired:InteriorLights:Electricity:Zone:PERIMETER_TOP_ZN_1 [J]
Zone,Meter,Electricity:Zone:PERIMETER_TOP_ZN_2 [J]
Zone,Meter,InteriorLights:Electricity:Zone:PERIMETER_TOP_ZN_2 [J]
Zone,Meter,LightsWired:InteriorLights:Electricity:Zone:PERIMETER_TOP_ZN_2 [J]
Zone,Meter,Electricity:Zone:PERIMETER_TOP_ZN_3 [J]
Zone,Meter,InteriorLights:Electricity:Zone:PERIMETER_TOP_ZN_3 [J]
Zone,Meter,LightsWired:InteriorLights:Electricity:Zone:PERIMETER_TOP_ZN_3 [J]
Zone,Meter,Electricity:Zone:PERIMETER_TOP_ZN_4 [J]
Zone,Meter,InteriorLights:Electricity:Zone:PERIMETER_TOP_ZN_4 [J]
Zone,Meter,LightsWired:InteriorLights:Electricity:Zone:PERIMETER_TOP_ZN_4 [J]
Zone,Meter,InteriorEquipment:Electricity [J]
Zone,Meter,InteriorEquipment:Electricity:Zone:CORE_BOTTOM [J]
Zone,Meter,InteriorEquipment:Electricity:SpaceType:GENERAL [J]
Zone,Meter,ElevatorLift:InteriorEquipment:Electricity [J]
Zone,Meter,ElevatorLift:InteriorEquipment:Electricity:Zone:CORE_BOTTOM [J]
Zone,Meter,ElevatorLift:InteriorEquipment:Electricity:SpaceType:GENERAL [J]
Zone,Meter,MiscPlug:InteriorEquipment:Electricity [J]
Zone,Meter,MiscPlug:InteriorEquipment:Electricity:Zone:CORE_BOTTOM [J]
Zone,Meter,MiscPlug:InteriorEquipment:Electricity:SpaceType:GENERAL [J]
Zone,Meter,InteriorEquipment:Electricity:Zone:CORE_MID [J]
Zone,Meter,MiscPlug:InteriorEquipment:Electricity:Zone:CORE_MID [J]
Zone,Meter,InteriorEquipment:Electricity:Zone:CORE_TOP [J]
Zone,Meter,MiscPlug:InteriorEquipment:Electricity:Zone:CORE_TOP [J]
Zone,Meter,ElevatorLightsFan:InteriorEquipment:Electricity [J]
Zone,Meter,ElevatorLightsFan:InteriorEquipment:Electricity:Zone:CORE_BOTTOM [J]
Zone,Meter,ElevatorLightsFan:InteriorEquipment:Electricity:SpaceType:GENERAL [J]
Zone,Meter,InteriorEquipment:Electricity:Zone:PERIMETER_BOT_ZN_1 [J]
Zone,Meter,MiscPlug:InteriorEquipment:Electricity:Zone:PERIMETER_BOT_ZN_1 [J]
Zone,Meter,InteriorEquipment:Electricity:Zone:PERIMETER_BOT_ZN_2 [J]
Zone,Meter,MiscPlug:InteriorEquipment:Electricity:Zone:PERIMETER_BOT_ZN_2 [J]
Zone,Meter,InteriorEquipment:Electricity:Zone:PERIMETER_BOT_ZN_3 [J]
Zone,Meter,MiscPlug:InteriorEquipment:Electricity:Zone:PERIMETER_BOT_ZN_3 [J]
Zone,Meter,InteriorEquipment:Electricity:Zone:PERIMETER_BOT_ZN_4 [J]
Zone,Meter,MiscPlug:InteriorEquipment:Electricity:Zone:PERIMETER_BOT_ZN_4 [J]
Zone,Meter,InteriorEquipment:Electricity:Zone:PERIMETER_MID_ZN_1 [J]
Zone,Meter,MiscPlug:InteriorEquipment:Electricity:Zone:PERIMETER_MID_ZN_1 [J]
Zone,Meter,InteriorEquipment:Electricity:Zone:PERIMETER_MID_ZN_2 [J]
Zone,Meter,MiscPlug:InteriorEquipment:Electricity:Zone:PERIMETER_MID_ZN_2 [J]
Zone,Meter,InteriorEquipment:Electricity:Zone:PERIMETER_MID_ZN_3 [J]
Zone,Meter,MiscPlug:InteriorEquipment:Electricity:Zone:PERIMETER_MID_ZN_3 [J]
Zone,Meter,InteriorEquipment:Electricity:Zone:PERIMETER_MID_ZN_4 [J]
Zone,Meter,MiscPlug:InteriorEquipment:Electricity:Zone:PERIMETER_MID_ZN_4 [J]
Zone,Meter,InteriorEquipment:Electricity:Zone:PERIMETER_TOP_ZN_1 [J]
Zone,Meter,MiscPlug:InteriorEquipment:Electricity:Zone:PERIMETER_TOP_ZN_1 [J]
Zone,Meter,InteriorEquipment:Electricity:Zone:PERIMETER_TOP_ZN_2 [J]
Zone,Meter,MiscPlug:InteriorEquipment:Electricity:Zone:PERIMETER_TOP_ZN_2 [J]
Zone,Meter,InteriorEquipment:Electricity:Zone:PERIMETER_TOP_ZN_3 [J]
Zone,Meter,MiscPlug:InteriorEquipment:Electricity:Zone:PERIMETER_TOP_ZN_3 [J]
Zone,Meter,InteriorEquipment:Electricity:Zone:PERIMETER_TOP_ZN_4 [J]
Zone,Meter,MiscPlug:InteriorEquipment:Electricity:Zone:PERIMETER_TOP_ZN_4 [J]
Zone,Meter,EnergyTransfer:Facility [J]
Zone,Meter,EnergyTransfer:Building [J]
Zone,Meter,EnergyTransfer:Zone:CORE_BOTTOM [J]
Zone,Meter,Heating:EnergyTransfer [J]
Zone,Meter,Heating:EnergyTransfer:Zone:CORE_BOTTOM [J]
Zone,Meter,General:Heating:EnergyTransfer [J]
Zone,Meter,General:Heating:EnergyTransfer:Zone:CORE_BOTTOM [J]
Zone,Meter,Cooling:EnergyTransfer [J]
Zone,Meter,Cooling:EnergyTransfer:Zone:CORE_BOTTOM [J]
Zone,Meter,General:Cooling:EnergyTransfer [J]
Zone,Meter,General:Cooling:EnergyTransfer:Zone:CORE_BOTTOM [J]
Zone,Meter,EnergyTransfer:Zone:CORE_MID [J]
Zone,Meter,Heating:EnergyTransfer:Zone:CORE_MID [J]
Zone,Meter,General:Heating:EnergyTransfer:Zone:CORE_MID [J]
Zone,Meter,Cooling:EnergyTransfer:Zone:CORE_MID [J]
Zone,Meter,General:Cooling:EnergyTransfer:Zone:CORE_MID [J]
Zone,Meter,EnergyTransfer:Zone:CORE_TOP [J]
Zone,Meter,Heating:EnergyTransfer:Zone:CORE_TOP [J]
Zone,Meter,General:Heating:EnergyTransfer:Zone:CORE_TOP [J]
Zone,Meter,Cooling:EnergyTransfer:Zone:CORE_TOP [J]
Zone,Meter,General:Cooling:EnergyTransfer:Zone:CORE_TOP [J]
Zone,Meter,EnergyTransfer:Zone:FIRSTFLOOR_PLENUM [J]
Zone,Meter,Heating:EnergyTransfer:Zone:FIRSTFLOOR_PLENUM [J]
Zone,Meter,General:Heating:EnergyTransfer:Zone:FIRSTFLOOR_PLENUM [J]
Zone,Meter,Cooling:EnergyTransfer:Zone:FIRSTFLOOR_PLENUM [J]
Zone,Meter,General:Cooling:EnergyTransfer:Zone:FIRSTFLOOR_PLENUM [J]
Zone,Meter,EnergyTransfer:Zone:MIDFLOOR_PLENUM [J]
Zone,Meter,Heating:EnergyTransfer:Zone:MIDFLOOR_PLENUM [J]
Zone,Meter,General:Heating:EnergyTransfer:Zone:MIDFLOOR_PLENUM [J]
Zone,Meter,Cooling:EnergyTransfer:Zone:MIDFLOOR_PLENUM [J]
Zone,Meter,General:Cooling:EnergyTransfer:Zone:MIDFLOOR_PLENUM [J]
Zone,Meter,EnergyTransfer:Zone:PERIMETER_BOT_ZN_1 [J]
Zone,Meter,Heating:EnergyTransfer:Zone:PERIMETER_BOT_ZN_1 [J]
Zone,Meter,General:Heating:EnergyTransfer:Zone:PERIMETER_BOT_ZN_1 [J]
Zone,Meter,Cooling:EnergyTransfer:Zone:PERIMETER_BOT_ZN_1 [J]
Zone,Meter,General:Cooling:EnergyTransfer:Zone:PERIMETER_BOT_ZN_1 [J]
Zone,Meter,EnergyTransfer:Zone:PERIMETER_BOT_ZN_2 [J]
Zone,Meter,Heating:EnergyTransfer:Zone:PERIMETER_BOT_ZN_2 [J]
Zone,Meter,General:Heating:EnergyTransfer:Zone:PERIMETER_BOT_ZN_2 [J]
Zone,Meter,Cooling:EnergyTransfer:Zone:PERIMETER_BOT_ZN_2 [J]
Zone,Meter,General:Cooling:EnergyTransfer:Zone:PERIMETER_BOT_ZN_2 [J]
Zone,Meter,EnergyTransfer:Zone:PERIMETER_BOT_ZN_3 [J]
Zone,Meter,Heating:EnergyTransfer:Zone:PERIMETER_BOT_ZN_3 [J]
Zone,Meter,General:Heating:EnergyTransfer:Zone:PERIMETER_BOT_ZN_3 [J]
Zone,Meter,Cooling:EnergyTransfer:Zone:PERIMETER_BOT_ZN_3 [J]
Zone,Meter,General:Cooling:EnergyTransfer:Zone:PERIMETER_BOT_ZN_3 [J]
Zone,Meter,EnergyTransfer:Zone:PERIMETER_BOT_ZN_4 [J]
Zone,Meter,Heating:EnergyTransfer:Zone:PERIMETER_BOT_ZN_4 [J]
Zone,Meter,General:Heating:EnergyTransfer:Zone:PERIMETER_BOT_ZN_4 [J]
Zone,Meter,Cooling:EnergyTransfer:Zone:PERIMETER_BOT_ZN_4 [J]
Zone,Meter,General:Cooling:EnergyTransfer:Zone:PERIMETER_BOT_ZN_4 [J]
Zone,Meter,EnergyTransfer:Zone:PERIMETER_MID_ZN_1 [J]
Zone,Meter,Heating:EnergyTransfer:Zone:PERIMETER_MID_ZN_1 [J]
Zone,Meter,General:Heating:EnergyTransfer:Zone:PERIMETER_MID_ZN_1 [J]
Zone,Meter,Cooling:EnergyTransfer:Zone:PERIMETER_MID_ZN_1 [J]
Zone,Meter,General:Cooling:EnergyTransfer:Zone:PERIMETER_MID_ZN_1 [J]
Zone,Meter,EnergyTransfer:Zone:PERIMETER_MID_ZN_2 [J]
Zone,Meter,Heating:EnergyTransfer:Zone:PERIMETER_MID_ZN_2 [J]
Zone,Meter,General:Heating:EnergyTransfer:Zone:PERIMETER_MID_ZN_2 [J]
Zone,Meter,Cooling:EnergyTransfer:Zone:PERIMETER_MID_ZN_2 [J]
Zone,Meter,General:Cooling:EnergyTransfer:Zone:PERIMETER_MID_ZN_2 [J]
Zone,Meter,EnergyTransfer:Zone:PERIMETER_MID_ZN_3 [J]
Zone,Meter,Heating:EnergyTransfer:Zone:PERIMETER_MID_ZN_3 [J]
Zone,Meter,General:Heating:EnergyTransfer:Zone:PERIMETER_MID_ZN_3 [J]
Zone,Meter,Cooling:EnergyTransfer:Zone:PERIMETER_MID_ZN_3 [J]
Zone,Meter,General:Cooling:EnergyTransfer:Zone:PERIMETER_MID_ZN_3 [J]
Zone,Meter,EnergyTransfer:Zone:PERIMETER_MID_ZN_4 [J]
Zone,Meter,Heating:EnergyTransfer:Zone:PERIMETER_MID_ZN_4 [J]
Zone,Meter,General:Heating:EnergyTransfer:Zone:PERIMETER_MID_ZN_4 [J]
Zone,Meter,Cooling:EnergyTransfer:Zone:PERIMETER_MID_ZN_4 [J]
Zone,Meter,General:Cooling:EnergyTransfer:Zone:PERIMETER_MID_ZN_4 [J]
Zone,Meter,EnergyTransfer:Zone:PERIMETER_TOP_ZN_1 [J]
Zone,Meter,Heating:EnergyTransfer:Zone:PERIMETER_TOP_ZN_1 [J]
Zone,Meter,General:Heating:EnergyTransfer:Zone:PERIMETER_TOP_ZN_1 [J]
Zone,Meter,Cooling:EnergyTransfer:Zone:PERIMETER_TOP_ZN_1 [J]
Zone,Meter,General:Cooling:EnergyTransfer:Zone:PERIMETER_TOP_ZN_1 [J]
Zone,Meter,EnergyTransfer:Zone:PERIMETER_TOP_ZN_2 [J]
Zone,Meter,Heating:EnergyTransfer:Zone:PERIMETER_TOP_ZN_2 [J]
Zone,Meter,General:Heating:EnergyTransfer:Zone:PERIMETER_TOP_ZN_2 [J]
Zone,Meter,Cooling:EnergyTransfer:Zone:PERIMETER_TOP_ZN_2 [J]
Zone,Meter,General:Cooling:EnergyTransfer:Zone:PERIMETER_TOP_ZN_2 [J]
Zone,Meter,EnergyTransfer:Zone:PERIMETER_TOP_ZN_3 [J]
Zone,Meter,Heating:EnergyTransfer:Zone:PERIMETER_TOP_ZN_3 [J]
Zone,Meter,General:Heating:EnergyTransfer:Zone:PERIMETER_TOP_ZN_3 [J]
Zone,Meter,Cooling:EnergyTransfer:Zone:PERIMETER_TOP_ZN_3 [J]
Zone,Meter,General:Cooling:EnergyTransfer:Zone:PERIMETER_TOP_ZN_3 [J]
Zone,Meter,EnergyTransfer:Zone:PERIMETER_TOP_ZN_4 [J]
Zone,Meter,Heating:EnergyTransfer:Zone:PERIMETER_TOP_ZN_4 [J]
Zone,Meter,General:Heating:EnergyTransfer:Zone:PERIMETER_TOP_ZN_4 [J]
Zone,Meter,Cooling:EnergyTransfer:Zone:PERIMETER_TOP_ZN_4 [J]
Zone,Meter,General:Cooling:EnergyTransfer:Zone:PERIMETER_TOP_ZN_4 [J]
Zone,Meter,EnergyTransfer:Zone:TOPFLOOR_PLENUM [J]
Zone,Meter,Heating:EnergyTransfer:Zone:TOPFLOOR_PLENUM [J]
Zone,Meter,General:Heating:EnergyTransfer:Zone:TOPFLOOR_PLENUM [J]
Zone,Meter,Cooling:EnergyTransfer:Zone:TOPFLOOR_PLENUM [J]
Zone,Meter,General:Cooling:EnergyTransfer:Zone:TOPFLOOR_PLENUM [J]
Zone,Meter,PlantLoopHeatingDemand:Facility [J]
Zone,Meter,PlantLoopHeatingDemand:Plant [J]
Zone,Meter,WaterSystems:PlantLoopHeatingDemand [J]
Zone,Meter,General:WaterSystems:PlantLoopHeatingDemand [J]
Zone,Meter,Electricity:HVAC [J]
Zone,Meter,ExteriorEquipment:Electricity [J]
Zone,Meter,Transformer:ExteriorEquipment:Electricity [J]
Zone,Meter,ElectricityPurchased:Facility [J]
Zone,Meter,ElectricityPurchased:Plant [J]
Zone,Meter,Cogeneration:ElectricityPurchased [J]
Zone,Meter,General:Cogeneration:ElectricityPurchased [J]
Zone,Meter,ElectricitySurplusSold:Facility [J]
Zone,Meter,ElectricitySurplusSold:Plant [J]
Zone,Meter,Cogeneration:ElectricitySurplusSold [J]
Zone,Meter,General:Cogeneration:ElectricitySurplusSold [J]
Zone,Meter,ElectricityNet:Facility [J]
Zone,Meter,ElectricityNet:Plant [J]
Zone,Meter,Cogeneration:ElectricityNet [J]
Zone,Meter,General:Cogeneration:ElectricityNet [J]
Zone,Meter,EnergyTransfer:HVAC [J]
Zone,Meter,HeatingCoils:EnergyTransfer [J]
Zone,Meter,Heating:Electricity [J]
Zone,Meter,General:Heating:Electricity [J]
Zone,Meter,NaturalGas:Facility [J]
Zone,Meter,NaturalGas:HVAC [J]
Zone,Meter,Heating:NaturalGas [J]
Zone,Meter,General:Heating:NaturalGas [J]
Zone,Meter,Fans:Electricity [J]
Zone,Meter,General:Fans:Electricity [J]
Zone,Meter,ExteriorLights:Electricity [J]
Zone,Meter,General:ExteriorLights:Electricity [J]
Zone,Meter,CoolingCoils:EnergyTransfer [J]
Zone,Meter,Cooling:Electricity [J]
Zone,Meter,General:Cooling:Electricity [J]
Zone,Meter,Water:Facility [m3]
Zone,Meter,Water:Plant [m3]
Zone,Meter,WaterSystems:Water [m3]
Zone,Meter,WaterUse:WaterSystems:Water [m3]
Zone,Meter,MainsWater:Facility [m3]
Zone,Meter,MainsWater:Plant [m3]
Zone,Meter,WaterSystems:MainsWater [m3]
Zone,Meter,WaterUse:WaterSystems:MainsWater [m3]
Zone,Meter,EnergyTransfer:Plant [J]
Zone,Meter,WaterSystems:EnergyTransfer [J]
Zone,Meter,WaterUse:WaterSystems:EnergyTransfer [J]
Zone,Meter,Water Heater:WaterSystems:PlantLoopHeatingDemand [J]
Zone,Meter,NaturalGas:Plant [J]
Zone,Meter,WaterSystems:NaturalGas [J]
Zone,Meter,Water Heater:WaterSystems:NaturalGas [J]
Zone,Meter,Water Heater:WaterSystems:Water [m3]
Zone,Meter,Water Heater:WaterSystems:MainsWater [m3]
Zone,Meter,Electricity:Plant [J]
Zone,Meter,Pumps:Electricity [J]
Zone,Meter,General:Pumps:Electricity [J]
Zone,Meter,Carbon Equivalent:Facility [kg]
Zone,Meter,CarbonEquivalentEmissions:Carbon Equivalent [kg]
Zone,Meter,WIRED_LTG_ELECTRICITY [J]
Zone,Meter,WIRED_INT_EQUIP [J]
