Program Version,EnergyPlus, Version 24.1.0-9d7789a3ac, YMD=2025.08.12 16:05,
   ** Warning ** ProcessScheduleInput: Schedule:Constant="VAV_BOT MAX OA FRACTION", Blank schedule_type_limits_name input -- will not be validated.
   ** Warning ** ProcessScheduleInput: Schedule:Constant="VAV_MID MAX OA FRACTION", Blank schedule_type_limits_name input -- will not be validated.
   ** Warning ** ProcessScheduleInput: Schedule:Constant="VAV_TOP MAX OA FRACTION", Blank schedule_type_limits_name input -- will not be validated.
   ************* Beginning Zone Sizing Calculations
   ** Warning ** RunPeriod: object=RUN PERIOD 1, start weekday (SUNDAY) does not match the start year (2024), corrected to MONDAY.
   ** Warning ** CheckUsedConstructions: There are 20 nominally unused constructions in input.
   **   ~~~   ** For explicit details on each unused construction, use Output:Diagnostics,DisplayExtraWarnings;
   ** Warning ** GetDaylightingControls: Fraction of zone or space controlled by the Daylighting reference points is < 1.0.
   **   ~~~   ** ..discovered in Daylighting:Controls="PERIMETER_BOT_ZN_1_DAYLCTRL", only 0.523 of the zone or space is controlled.
   ** Warning ** GetDaylightingControls: Fraction of zone or space controlled by the Daylighting reference points is < 1.0.
   **   ~~~   ** ..discovered in Daylighting:Controls="PERIMETER_BOT_ZN_2_DAYLCTRL", only 0.523 of the zone or space is controlled.
   ** Warning ** GetDaylightingControls: Fraction of zone or space controlled by the Daylighting reference points is < 1.0.
   **   ~~~   ** ..discovered in Daylighting:Controls="PERIMETER_BOT_ZN_3_DAYLCTRL", only 0.523 of the zone or space is controlled.
   ** Warning ** GetDaylightingControls: Fraction of zone or space controlled by the Daylighting reference points is < 1.0.
   **   ~~~   ** ..discovered in Daylighting:Controls="PERIMETER_BOT_ZN_4_DAYLCTRL", only 0.523 of the zone or space is controlled.
   ** Warning ** GetDaylightingControls: Fraction of zone or space controlled by the Daylighting reference points is < 1.0.
   **   ~~~   ** ..discovered in Daylighting:Controls="PERIMETER_MID_ZN_1_DAYLCTRL", only 0.523 of the zone or space is controlled.
   ** Warning ** GetDaylightingControls: Fraction of zone or space controlled by the Daylighting reference points is < 1.0.
   **   ~~~   ** ..discovered in Daylighting:Controls="PERIMETER_MID_ZN_2_DAYLCTRL", only 0.523 of the zone or space is controlled.
   ** Warning ** GetDaylightingControls: Fraction of zone or space controlled by the Daylighting reference points is < 1.0.
   **   ~~~   ** ..discovered in Daylighting:Controls="PERIMETER_MID_ZN_3_DAYLCTRL", only 0.523 of the zone or space is controlled.
   ** Warning ** GetDaylightingControls: Fraction of zone or space controlled by the Daylighting reference points is < 1.0.
   **   ~~~   ** ..discovered in Daylighting:Controls="PERIMETER_MID_ZN_4_DAYLCTRL", only 0.523 of the zone or space is controlled.
   ** Warning ** GetDaylightingControls: Fraction of zone or space controlled by the Daylighting reference points is < 1.0.
   **   ~~~   ** ..discovered in Daylighting:Controls="PERIMETER_TOP_ZN_1_DAYLCTRL", only 0.523 of the zone or space is controlled.
   ** Warning ** GetDaylightingControls: Fraction of zone or space controlled by the Daylighting reference points is < 1.0.
   **   ~~~   ** ..discovered in Daylighting:Controls="PERIMETER_TOP_ZN_2_DAYLCTRL", only 0.523 of the zone or space is controlled.
   ** Warning ** GetDaylightingControls: Fraction of zone or space controlled by the Daylighting reference points is < 1.0.
   **   ~~~   ** ..discovered in Daylighting:Controls="PERIMETER_TOP_ZN_3_DAYLCTRL", only 0.523 of the zone or space is controlled.
   ** Warning ** GetDaylightingControls: Fraction of zone or space controlled by the Daylighting reference points is < 1.0.
   **   ~~~   ** ..discovered in Daylighting:Controls="PERIMETER_TOP_ZN_4_DAYLCTRL", only 0.523 of the zone or space is controlled.
   ************* Beginning System Sizing Calculations
   ** Warning ** Since damper_heating_action = NORMAL, input for maximum_flow_fraction_during_reheat will be ignored.
   **   ~~~   ** Occurs in AirTerminal:SingleDuct:VAV:Reheat = CORE_BOTTOM VAV BOX COMPONENT
   ** Warning ** Since damper_heating_action = NORMAL, input for maximum_flow_fraction_during_reheat will be ignored.
   **   ~~~   ** Occurs in AirTerminal:SingleDuct:VAV:Reheat = CORE_MID VAV BOX COMPONENT
   ** Warning ** Since damper_heating_action = NORMAL, input for maximum_flow_fraction_during_reheat will be ignored.
   **   ~~~   ** Occurs in AirTerminal:SingleDuct:VAV:Reheat = CORE_TOP VAV BOX COMPONENT
   ** Warning ** Since damper_heating_action = NORMAL, input for maximum_flow_fraction_during_reheat will be ignored.
   **   ~~~   ** Occurs in AirTerminal:SingleDuct:VAV:Reheat = PERIMETER_BOT_ZN_1 VAV BOX COMPONENT
   ** Warning ** Since damper_heating_action = NORMAL, input for maximum_flow_fraction_during_reheat will be ignored.
   **   ~~~   ** Occurs in AirTerminal:SingleDuct:VAV:Reheat = PERIMETER_BOT_ZN_2 VAV BOX COMPONENT
   ** Warning ** Since damper_heating_action = NORMAL, input for maximum_flow_fraction_during_reheat will be ignored.
   **   ~~~   ** Occurs in AirTerminal:SingleDuct:VAV:Reheat = PERIMETER_BOT_ZN_3 VAV BOX COMPONENT
   ** Warning ** Since damper_heating_action = NORMAL, input for maximum_flow_fraction_during_reheat will be ignored.
   **   ~~~   ** Occurs in AirTerminal:SingleDuct:VAV:Reheat = PERIMETER_BOT_ZN_4 VAV BOX COMPONENT
   ** Warning ** Since damper_heating_action = NORMAL, input for maximum_flow_fraction_during_reheat will be ignored.
   **   ~~~   ** Occurs in AirTerminal:SingleDuct:VAV:Reheat = PERIMETER_MID_ZN_1 VAV BOX COMPONENT
   ** Warning ** Since damper_heating_action = NORMAL, input for maximum_flow_fraction_during_reheat will be ignored.
   **   ~~~   ** Occurs in AirTerminal:SingleDuct:VAV:Reheat = PERIMETER_MID_ZN_2 VAV BOX COMPONENT
   ** Warning ** Since damper_heating_action = NORMAL, input for maximum_flow_fraction_during_reheat will be ignored.
   **   ~~~   ** Occurs in AirTerminal:SingleDuct:VAV:Reheat = PERIMETER_MID_ZN_3 VAV BOX COMPONENT
   ** Warning ** Since damper_heating_action = NORMAL, input for maximum_flow_fraction_during_reheat will be ignored.
   **   ~~~   ** Occurs in AirTerminal:SingleDuct:VAV:Reheat = PERIMETER_MID_ZN_4 VAV BOX COMPONENT
   ** Warning ** Since damper_heating_action = NORMAL, input for maximum_flow_fraction_during_reheat will be ignored.
   **   ~~~   ** Occurs in AirTerminal:SingleDuct:VAV:Reheat = PERIMETER_TOP_ZN_1 VAV BOX COMPONENT
   ** Warning ** Since damper_heating_action = NORMAL, input for maximum_flow_fraction_during_reheat will be ignored.
   **   ~~~   ** Occurs in AirTerminal:SingleDuct:VAV:Reheat = PERIMETER_TOP_ZN_2 VAV BOX COMPONENT
   ** Warning ** Since damper_heating_action = NORMAL, input for maximum_flow_fraction_during_reheat will be ignored.
   **   ~~~   ** Occurs in AirTerminal:SingleDuct:VAV:Reheat = PERIMETER_TOP_ZN_3 VAV BOX COMPONENT
   ** Warning ** Since damper_heating_action = NORMAL, input for maximum_flow_fraction_during_reheat will be ignored.
   **   ~~~   ** Occurs in AirTerminal:SingleDuct:VAV:Reheat = PERIMETER_TOP_ZN_4 VAV BOX COMPONENT
   ************* Testing Individual Branch Integrity
   ************* All Branches passed integrity testing
   ************* Testing Individual Supply Air Path Integrity
   ************* All Supply Air Paths passed integrity testing
   ************* Testing Individual Return Air Path Integrity
   ************* All Return Air Paths passed integrity testing
   ************* No node connection errors were found.
   ************* Beginning Simulation
   ** Warning ** Processing Monthly Tabular Reports: Variable names not valid for this simulation
   **   ~~~   ** ...use Output:Diagnostics,DisplayExtraWarnings; to show more details on individual variables.
   ** Warning ** SimHVAC: Maximum iterations (5) exceeded for all HVAC loops, at RUN PERIOD 1, 07/11 07:00 - 07:10
   **   ~~~   ** ...use Output:Diagnostics,DisplayExtraWarnings; to show more details on each max iteration exceeded.
   ** Warning ** SimHVAC: Maximum iterations (5) exceeded for all HVAC loops, at RUN PERIOD 1, 07/17 09:10 - 09:20
   **   ~~~   ** The solution for one or more of the Air Loop HVAC systems did not appear to converge
   ** Warning ** SimHVAC: Maximum iterations (5) exceeded for all HVAC loops, at RUN PERIOD 1, 07/18 07:30 - 07:40
   **   ~~~   ** The solution for one or more of the Air Loop HVAC systems did not appear to converge
   ** Warning ** SimHVAC: Maximum iterations (5) exceeded for all HVAC loops, at RUN PERIOD 1, 07/29 06:00 - 06:10
   **   ~~~   ** The solution for one or more of the Air Loop HVAC systems did not appear to converge
   ************* Simulation Error Summary *************
   ************* There are 29 unused schedules in input.
   ************* Use Output:Diagnostics,DisplayUnusedSchedules; to see them.
   *************
   ************* ===== Recurring Error Summary =====
   ************* The following recurring error messages occurred.
   *************
   *************  ** Warning ** Plant loop exceeding upper temperature limit, PlantLoop="SHWSYS1"
   *************  **   ~~~   **   This error occurred 2627 total times;
   *************  **   ~~~   **   during Warmup 221 times;
   *************  **   ~~~   **   during Sizing 0 times.
   *************  **   ~~~   **   Max=82.222200
   *************
   *************
   ************* ===== Final Error Summary =====
   ************* The following error categories occurred.  Consider correcting or noting.
   ************* Nominally Unused Constructions
   ************* ..The nominally unused constructions warning is provided to alert you to potential conditions that can cause
   ************* ..extra time during simulation. Each construction is calculated by the algorithm indicated in the HeatBalanceAlgorithm
   ************* ..object. You may remove the constructions indicated (when you use the DisplayExtraWarnings option).
   *************
   ************* EnergyPlus Warmup Error Summary. During Warmup: 0 Warning; 0 Severe Errors.
   ************* EnergyPlus Sizing Error Summary. During Sizing: 32 Warning; 0 Severe Errors.
   ************* EnergyPlus Completed Successfully-- 2664 Warning; 0 Severe Errors; Elapsed Time=00hr 00min  7.64sec
